Circuit: * C:\Users\Acer\Downloads\EXP3.asc

Instance "m2": Length shorter than recommended for a level 1 MOSFET.
Instance "m2": Width narrower than recommended for a level 1 MOSFET.
Instance "m1": Length shorter than recommended for a level 1 MOSFET.
Instance "m1": Width narrower than recommended for a level 1 MOSFET.

Date: Fri Mar 03 00:58:11 2023
Total elapsed time: 0.046 seconds.

tnom = 27
temp = 27
method = trap
totiter = 421
traniter = 0
tranpoints = 0
accept = 0
rejected = 0
matrix size = 5
fillins = 0
solver = Normal
Matrix Compiler1: 132 bytes object code size  0.1/0.0/[0.0]
Matrix Compiler2: 335 bytes object code size  0.1/0.1/[0.1]

