Circuit: * C:\Users\Acer\OneDrive\Documents\LTspiceXVII\ECE3006_Exp7_10032023.asc

Limiting rise time of source v2 to 2e-009
Limiting fall time of source v2 to 2e-009
Limiting rise time of source v1 to 2e-009
Limiting fall time of source v1 to 2e-009
Instance "m4": Length shorter than recommended for a level 1 MOSFET.
Instance "m4": Width narrower than recommended for a level 1 MOSFET.
Instance "m3": Length shorter than recommended for a level 1 MOSFET.
Instance "m3": Width narrower than recommended for a level 1 MOSFET.
Instance "m2": Length shorter than recommended for a level 1 MOSFET.
Instance "m2": Width narrower than recommended for a level 1 MOSFET.
Instance "m1": Length shorter than recommended for a level 1 MOSFET.
Instance "m1": Width narrower than recommended for a level 1 MOSFET.
Direct Newton iteration for .op point succeeded.

Date: Sun Mar 12 23:35:18 2023
Total elapsed time: 0.076 seconds.

tnom = 27
temp = 27
method = modified trap
totiter = 2876
traniter = 2867
tranpoints = 1276
accept = 1224
rejected = 52
matrix size = 8
fillins = 0
solver = Normal
Matrix Compiler1: 282 bytes object code size  0.1/0.1/[0.1]
Matrix Compiler2: off  [0.1]/0.1/0.1

