Circuit: * C:\Users\Acer\Downloads\EXP2.asc

Limiting rise time of source v2 to 2e-009
Limiting fall time of source v2 to 2e-009
Instance "m2": Length shorter than recommended for a level 1 MOSFET.
Instance "m2": Width narrower than recommended for a level 1 MOSFET.
Instance "m1": Length shorter than recommended for a level 1 MOSFET.
Instance "m1": Width narrower than recommended for a level 1 MOSFET.
Direct Newton iteration for .op point succeeded.

Date: Thu Mar 02 23:03:00 2023
Total elapsed time: 0.045 seconds.

tnom = 27
temp = 27
method = modified trap
totiter = 2333
traniter = 2327
tranpoints = 1161
accept = 1133
rejected = 28
matrix size = 5
fillins = 0
solver = Normal
Matrix Compiler1: 132 bytes object code size  0.1/0.0/[0.0]
Matrix Compiler2: 335 bytes object code size  0.1/0.1/[0.0]

