Circuit: * C:\Users\Acer\OneDrive\Documents\LTspiceXVII\ECE3006_Exp6_10032023.asc

Limiting rise time of source v3 to 2e-009
Limiting fall time of source v3 to 2e-009
Limiting rise time of source v2 to 2e-009
Limiting fall time of source v2 to 2e-009
Instance "m3": Length shorter than recommended for a level 1 MOSFET.
Instance "m3": Width narrower than recommended for a level 1 MOSFET.
Instance "m2": Length shorter than recommended for a level 1 MOSFET.
Instance "m2": Width narrower than recommended for a level 1 MOSFET.
Instance "m1": Length shorter than recommended for a level 1 MOSFET.
Instance "m1": Width narrower than recommended for a level 1 MOSFET.
Direct Newton iteration for .op point succeeded.

Date: Sun Mar 12 23:12:28 2023
Total elapsed time: 0.078 seconds.

tnom = 27
temp = 27
method = modified trap
totiter = 3917
traniter = 3912
tranpoints = 1361
accept = 1277
rejected = 84
matrix size = 8
fillins = 0
solver = Normal
Matrix Compiler1: 264 bytes object code size  0.1/0.1/[0.0]
Matrix Compiler2: 648 bytes object code size  0.1/0.1/[0.1]

