Circuit: * C:\Users\Acer\Downloads\EXP4.asc

Limiting rise time of source v2 to 2e-009
Limiting fall time of source v2 to 2e-009
Direct Newton iteration for .op point succeeded.

Date: Fri Mar 03 01:19:17 2023
Total elapsed time: 0.085 seconds.

tnom = 27
temp = 27
method = modified trap
totiter = 2327
traniter = 2324
tranpoints = 1161
accept = 1133
rejected = 28
matrix size = 5
fillins = 0
solver = Normal
Matrix Compiler1: 114 bytes object code size  0.1/0.1/[0.1]
Matrix Compiler2: 301 bytes object code size  0.1/0.2/[0.1]

