Circuit: * C:\Users\Acer\Downloads\EXP1.asc

Instance "m1": Length shorter than recommended for a level 1 MOSFET.
Instance "m1": Width narrower than recommended for a level 1 MOSFET.
.OP point found by inspection.
.step v2=0
.step v2=0.25
.step v2=0.5
.step v2=0.75
.step v2=1
.step v2=1.25
.step v2=1.5
.step v2=1.75
.step v2=2
.step v2=2.25
.step v2=2.5
.step v2=2.75
.step v2=3
.step v2=3.25
.step v2=3.5
.step v2=3.75
.step v2=4
.step v2=4.25
.step v2=4.5
.step v2=4.75
.step v2=5

Date: Thu Mar 02 21:25:13 2023
Total elapsed time: 0.302 seconds.

tnom = 27
temp = 27
method = trap
totiter = 924
traniter = 0
tranpoints = 0
accept = 0
rejected = 0
matrix size = 5
fillins = 0
solver = Normal
Matrix Compiler1: 114 bytes object code size  0.2/0.1/[0.1]
Matrix Compiler2: 301 bytes object code size  0.2/0.2/[0.1]

